PV_Scenarios/PV_combined/scenario_86_combined/PV_combined20per.txt
New PVSystem.PV_1 phases=1 bus1=G2000UI5400_N283699_sec_4.3 kV=0.24 kVA=5.4 irradiance=1 Pmpp=4.5 %cutin=0.1 %cutout=0.1
New PVSystem.PV_2 phases=1 bus1=G2000UI6400_N283679_sec_3.3 kV=0.24 kVA=1.32 irradiance=1 Pmpp=1.1 %cutin=0.1 %cutout=0.1
New PVSystem.PV_3 phases=1 bus1=G2000UJ6500_N283747_sec_5.2 kV=0.24 kVA=3.8701 irradiance=1 Pmpp=3.2251 %cutin=0.1 %cutout=0.1
New PVSystem.PV_4 phases=1 bus1=G2000UO1100_N283873_sec_1.3 kV=0.24 kVA=3.24 irradiance=1 Pmpp=2.7 %cutin=0.1 %cutout=0.1
New PVSystem.PV_5 phases=1 bus1=G2000VI6200_N283684_sec_4.2 kV=0.24 kVA=5.5939 irradiance=1 Pmpp=4.6616 %cutin=0.1 %cutout=0.1
New PVSystem.PV_6 phases=1 bus1=G2000WN3300_N283848_sec_1.2 kV=0.24 kVA=6.72 irradiance=1 Pmpp=5.6 %cutin=0.1 %cutout=0.1
New PVSystem.PV_7 phases=1 bus1=G2000XG5800_N283612_sec_1.3 kV=0.24 kVA=2.64 irradiance=1 Pmpp=2.2 %cutin=0.1 %cutout=0.1
New PVSystem.PV_8 phases=1 bus1=G2001QN1600_N274550_sec_1.2 kV=0.24 kVA=6.24 irradiance=1 Pmpp=5.2 %cutin=0.1 %cutout=0.1
New PVSystem.PV_9 phases=1 bus1=G2001RB7800_N274248_sec_1.3 kV=0.24 kVA=6.6 irradiance=1 Pmpp=5.5 %cutin=0.1 %cutout=0.1
New PVSystem.PV_10 phases=1 bus1=G2001RI6300_N1347089_sec_7.1 kV=0.24 kVA=5.88 irradiance=1 Pmpp=4.9 %cutin=0.1 %cutout=0.1
New PVSystem.PV_11 phases=1 bus1=G2001RJ3400_N274458_sec_1.2 kV=0.24 kVA=12.6888 irradiance=1 Pmpp=10.574 %cutin=0.1 %cutout=0.1
New PVSystem.PV_12 phases=1 bus1=G2001RJ9700_N274469_sec_4.2 kV=0.24 kVA=12.48 irradiance=1 Pmpp=10.4 %cutin=0.1 %cutout=0.1
New PVSystem.PV_13 phases=1 bus1=G2001SI2800_N274447_sec_3.1 kV=0.24 kVA=5.28 irradiance=1 Pmpp=4.4 %cutin=0.1 %cutout=0.1
New PVSystem.PV_14 phases=1 bus1=G2001SI5500_N274436_sec_1.1 kV=0.24 kVA=5.04 irradiance=1 Pmpp=4.2 %cutin=0.1 %cutout=0.1
New PVSystem.PV_15 phases=1 bus1=G2001TI6400_N284162_sec_2.2 kV=0.24 kVA=11.3594 irradiance=1 Pmpp=9.4662 %cutin=0.1 %cutout=0.1
New PVSystem.PV_16 phases=1 bus1=G2001UB2100_N283965_sec_2.3 kV=0.24 kVA=3.12 irradiance=1 Pmpp=2.6 %cutin=0.1 %cutout=0.1
New PVSystem.PV_17 phases=1 bus1=G2001UD4700_N284020_sec_1.3 kV=0.24 kVA=6.7091 irradiance=1 Pmpp=5.591 %cutin=0.1 %cutout=0.1
New PVSystem.PV_18 phases=1 bus1=G2001VD6400_N283955_sec_2.3 kV=0.24 kVA=3.3373 irradiance=1 Pmpp=2.7811 %cutin=0.1 %cutout=0.1
New PVSystem.PV_19 phases=1 bus1=G2001WB8800_N283948_sec_9.3 kV=0.24 kVA=5.64 irradiance=1 Pmpp=4.7 %cutin=0.1 %cutout=0.1
New PVSystem.PV_20 phases=1 bus1=G2001YN2500_N284289_sec_1.1 kV=0.24 kVA=0 irradiance=1 Pmpp=0 %cutin=0.1 %cutout=0.1
New PVSystem.PV_21 phases=1 bus1=G2100AG8700_N283594_sec_6.3 kV=0.24 kVA=3.96 irradiance=1 Pmpp=3.3 %cutin=0.1 %cutout=0.1
New PVSystem.PV_22 phases=1 bus1=G2100AH2000_N283617_sec_2.3 kV=0.24 kVA=4.2 irradiance=1 Pmpp=3.5 %cutin=0.1 %cutout=0.1
New PVSystem.PV_23 phases=1 bus1=G2100AL1800_N283798_sec_2.1 kV=0.24 kVA=8.4127 irradiance=1 Pmpp=7.0105 %cutin=0.1 %cutout=0.1
New PVSystem.PV_24 phases=1 bus1=G2100BJ0700_N283696_sec_9.2 kV=0.24 kVA=6.8478 irradiance=1 Pmpp=5.7065 %cutin=0.1 %cutout=0.1
New PVSystem.PV_25 phases=1 bus1=G2100BL0800_N283800_sec_4.1 kV=0.24 kVA=6.84 irradiance=1 Pmpp=5.7 %cutin=0.1 %cutout=0.1
New PVSystem.PV_26 phases=1 bus1=G2100BN9700_N283853_sec_11.3 kV=0.24 kVA=2.76 irradiance=1 Pmpp=2.3 %cutin=0.1 %cutout=0.1
New PVSystem.PV_27 phases=1 bus1=G2100CJ3400_N283737_sec_2.2 kV=0.24 kVA=7.44 irradiance=1 Pmpp=6.2 %cutin=0.1 %cutout=0.1
New PVSystem.PV_28 phases=1 bus1=G2100CM0100_N283805_sec_2.1 kV=0.24 kVA=6.12 irradiance=1 Pmpp=5.1 %cutin=0.1 %cutout=0.1
New PVSystem.PV_29 phases=1 bus1=G2100DG1300_N283601_sec_7.3 kV=0.24 kVA=2.52 irradiance=1 Pmpp=2.1 %cutin=0.1 %cutout=0.1
New PVSystem.PV_30 phases=1 bus1=G2100DG3700_N283614_sec_8.3 kV=0.24 kVA=4.92 irradiance=1 Pmpp=4.1 %cutin=0.1 %cutout=0.1
New PVSystem.PV_31 phases=1 bus1=G2100DG3700_N283614_sec_14.3 kV=0.24 kVA=2.64 irradiance=1 Pmpp=2.2 %cutin=0.1 %cutout=0.1
New PVSystem.PV_32 phases=1 bus1=G2100DK1500_N283758_sec_5.2 kV=0.24 kVA=4.44 irradiance=1 Pmpp=3.7 %cutin=0.1 %cutout=0.1
New PVSystem.PV_33 phases=1 bus1=G2100DN4800_N283861_sec_30.3 kV=0.24 kVA=2.64 irradiance=1 Pmpp=2.2 %cutin=0.1 %cutout=0.1
New PVSystem.PV_34 phases=1 bus1=G2100EN2200_N292457_sec_15.3 kV=0.24 kVA=1.32 irradiance=1 Pmpp=1.1 %cutin=0.1 %cutout=0.1
New PVSystem.PV_35 phases=1 bus1=G2100EN8600_N292479_sec_12.3 kV=0.24 kVA=4.44 irradiance=1 Pmpp=3.7 %cutin=0.1 %cutout=0.1
New PVSystem.PV_36 phases=3 conn = delta bus1=G2100FG1700_N292304_sec_3.1.2.3 kV=0.48 kVA=17.52 irradiance=1 Pmpp=14.6 %cutin=0.1 %cutout=0.1
New PVSystem.PV_37 phases=3 conn = delta bus1=G2100GF1700_N292259_sec_1.1.2.3 kV=0.48 kVA=165.6 irradiance=1 Pmpp=138 %cutin=0.1 %cutout=0.1
New PVSystem.PV_38 phases=3 conn = delta bus1=G2100GI5400_N292325_sec_5.1.2.3 kV=0.48 kVA=6.48 irradiance=1 Pmpp=5.4 %cutin=0.1 %cutout=0.1
New PVSystem.PV_39 phases=3 conn = delta bus1=G2100GJ9100_N292332_sec_2.1.2.3 kV=0.48 kVA=25.32 irradiance=1 Pmpp=21.1 %cutin=0.1 %cutout=0.1
New PVSystem.PV_40 phases=3 conn = delta bus1=G2100GL2400_N292406_sec_1.1.2.3 kV=0.48 kVA=46.7741 irradiance=1 Pmpp=38.9784 %cutin=0.1 %cutout=0.1
New PVSystem.PV_41 phases=3 conn = delta bus1=G2100HG2900_N292296_sec_1.1.2.3 kV=0.48 kVA=331.8277 irradiance=1 Pmpp=276.5231 %cutin=0.1 %cutout=0.1
New PVSystem.PV_42 phases=1 bus1=G2100HM3200_N292420_sec_16.3 kV=0.24 kVA=3.36 irradiance=1 Pmpp=2.8 %cutin=0.1 %cutout=0.1
New PVSystem.PV_43 phases=1 bus1=G2100HM9900_N292433_sec_5.3 kV=0.24 kVA=5.16 irradiance=1 Pmpp=4.3 %cutin=0.1 %cutout=0.1
New PVSystem.PV_44 phases=1 bus1=G2100HM9900_N292433_sec_23.3 kV=0.24 kVA=3.12 irradiance=1 Pmpp=2.6 %cutin=0.1 %cutout=0.1
New PVSystem.PV_45 phases=1 bus1=G2100HN5600_N292453_sec_56.3 kV=0.24 kVA=0.48 irradiance=1 Pmpp=0.4 %cutin=0.1 %cutout=0.1
New PVSystem.PV_46 phases=1 bus1=G2100IN7700_N292438_sec_4.3 kV=0.24 kVA=2.04 irradiance=1 Pmpp=1.7 %cutin=0.1 %cutout=0.1
New PVSystem.PV_47 phases=1 bus1=G2100PA2100_N300606_sec_2.1 kV=0.24 kVA=4.56 irradiance=1 Pmpp=3.8 %cutin=0.1 %cutout=0.1
New PVSystem.PV_48 phases=1 bus1=G2100RO6900_N312512_sec_8.3 kV=0.24 kVA=3.36 irradiance=1 Pmpp=2.8 %cutin=0.1 %cutout=0.1
New PVSystem.PV_49 phases=1 bus1=G2100SO3700_N312462_sec_3.3 kV=0.24 kVA=3 irradiance=1 Pmpp=2.5 %cutin=0.1 %cutout=0.1
New PVSystem.PV_50 phases=1 bus1=G2100SO3700_N312462_sec_7.3 kV=0.24 kVA=2.76 irradiance=1 Pmpp=2.3 %cutin=0.1 %cutout=0.1
New PVSystem.PV_51 phases=1 bus1=G2100SP2100_N312536_sec_3.2 kV=0.24 kVA=7.6448 irradiance=1 Pmpp=6.3707 %cutin=0.1 %cutout=0.1
New PVSystem.PV_52 phases=1 bus1=G2101CD3700_N284034_sec_5.2 kV=0.24 kVA=3.7421 irradiance=1 Pmpp=3.1185 %cutin=0.1 %cutout=0.1
New PVSystem.PV_53 phases=1 bus1=G2101DC3900_N283999_sec_4.2 kV=0.24 kVA=4.8 irradiance=1 Pmpp=4 %cutin=0.1 %cutout=0.1
New PVSystem.PV_54 phases=1 bus1=G2101DE3600_N284078_sec_2.2 kV=0.24 kVA=7.1573 irradiance=1 Pmpp=5.9644 %cutin=0.1 %cutout=0.1
New PVSystem.PV_55 phases=1 bus1=G2101DE3600_N284078_sec_3.2 kV=0.24 kVA=7.8 irradiance=1 Pmpp=6.5 %cutin=0.1 %cutout=0.1
New PVSystem.PV_56 phases=1 bus1=G2101EE3400_N284041_sec_1.2 kV=0.24 kVA=8.2912 irradiance=1 Pmpp=6.9094 %cutin=0.1 %cutout=0.1
New PVSystem.PV_57 phases=1 bus1=G2101FC8400_N292612_sec_17.2 kV=0.24 kVA=3.72 irradiance=1 Pmpp=3.1 %cutin=0.1 %cutout=0.1
New PVSystem.PV_58 phases=1 bus1=G2101FD9100_N292643_sec_16.1 kV=0.24 kVA=2.28 irradiance=1 Pmpp=1.9 %cutin=0.1 %cutout=0.1
New PVSystem.PV_59 phases=1 bus1=G2101FL7900_N292821_sec_2.2 kV=0.24 kVA=6.1309 irradiance=1 Pmpp=5.1091 %cutin=0.1 %cutout=0.1
New PVSystem.PV_60 phases=1 bus1=G2101GC3200_N292623_sec_3.1 kV=0.24 kVA=4.08 irradiance=1 Pmpp=3.4 %cutin=0.1 %cutout=0.1
New PVSystem.PV_61 phases=1 bus1=G2101GC3200_N292623_sec_18.1 kV=0.24 kVA=3.72 irradiance=1 Pmpp=3.1 %cutin=0.1 %cutout=0.1
New PVSystem.PV_62 phases=1 bus1=G2101HB3500_N292585_sec_4.1 kV=0.24 kVA=3.36 irradiance=1 Pmpp=2.8 %cutin=0.1 %cutout=0.1
New PVSystem.PV_63 phases=1 bus1=G2101HC2500_N292626_sec_3.1 kV=0.24 kVA=4.2 irradiance=1 Pmpp=3.5 %cutin=0.1 %cutout=0.1
New PVSystem.PV_64 phases=1 bus1=G2101HD2500_N292652_sec_5.1 kV=0.24 kVA=2.04 irradiance=1 Pmpp=1.7 %cutin=0.1 %cutout=0.1
New PVSystem.PV_65 phases=1 bus1=G2101HG3400_N1406188_sec_2.1 kV=0.24 kVA=1.32 irradiance=1 Pmpp=1.1 %cutin=0.1 %cutout=0.1
New PVSystem.PV_66 phases=3 conn = delta bus1=G2101JA6700_N1321243_sec_1.1.2.3 kV=0.48 kVA=12 irradiance=1 Pmpp=10 %cutin=0.1 %cutout=0.1
New PVSystem.PV_67 phases=1 bus1=G2101JG9800_N300850_sec_1.1 kV=0.24 kVA=5.88 irradiance=1 Pmpp=4.9 %cutin=0.1 %cutout=0.1
New PVSystem.PV_68 phases=1 bus1=G2101KA0900_N300672_sec_12.1 kV=0.24 kVA=2.52 irradiance=1 Pmpp=2.1 %cutin=0.1 %cutout=0.1
New PVSystem.PV_69 phases=1 bus1=G2101OB6900_N300737_sec_1.3 kV=0.24 kVA=2.64 irradiance=1 Pmpp=2.2 %cutin=0.1 %cutout=0.1
New PVSystem.PV_70 phases=1 bus1=G2101PB2500_N300719_sec_10.3 kV=0.24 kVA=2.28 irradiance=1 Pmpp=1.9 %cutin=0.1 %cutout=0.1
New PVSystem.PV_71 phases=1 bus1=G2101PB3000_N300676_sec_4.1 kV=0.24 kVA=2.52 irradiance=1 Pmpp=2.1 %cutin=0.1 %cutout=0.1
New PVSystem.PV_72 phases=1 bus1=G2101PB5100_N300681_sec_6.1 kV=0.24 kVA=4.3062 irradiance=1 Pmpp=3.5885 %cutin=0.1 %cutout=0.1
New PVSystem.PV_73 phases=1 bus1=G2101PB7100_N300674_sec_6.1 kV=0.24 kVA=3.24 irradiance=1 Pmpp=2.7 %cutin=0.1 %cutout=0.1
New PVSystem.PV_74 phases=1 bus1=G2101QC1100_N300736_sec_1.3 kV=0.24 kVA=2.16 irradiance=1 Pmpp=1.8 %cutin=0.1 %cutout=0.1
New PVSystem.PV_75 phases=1 bus1=G2101RA0900_N300678_sec_2.1 kV=0.24 kVA=0 irradiance=1 Pmpp=0 %cutin=0.1 %cutout=0.1
New PVSystem.PV_76 phases=1 bus1=G2101TA3200_N312486_sec_2.2 kV=0.24 kVA=5.52 irradiance=1 Pmpp=4.6 %cutin=0.1 %cutout=0.1
New PVSystem.PV_77 phases=1 bus1=G2102AC6800_N284336_sec_3.1 kV=0.24 kVA=12.72 irradiance=1 Pmpp=10.6 %cutin=0.1 %cutout=0.1
New PVSystem.PV_78 phases=1 bus1=G2102AE9300_N284358_sec_1.1 kV=0.24 kVA=13.08 irradiance=1 Pmpp=10.9 %cutin=0.1 %cutout=0.1
New PVSystem.PV_79 phases=1 bus1=G2000VI6200_N283684_sec_7.2 kV=0.24 kVA=9.5252 irradiance=1 Pmpp=7.9377 %cutin=0.1 %cutout=0.1
New PVSystem.PV_80 phases=1 bus1=G2000WO8800_N283892_sec_2.3 kV=0.24 kVA=4.32 irradiance=1 Pmpp=3.6 %cutin=0.1 %cutout=0.1
New PVSystem.PV_81 phases=1 bus1=G2000XH4800_N283608_sec_4.2 kV=0.24 kVA=6.24 irradiance=1 Pmpp=5.2 %cutin=0.1 %cutout=0.1
New PVSystem.PV_82 phases=1 bus1=G2001QJ8800_N274458_sec_2.2 kV=0.24 kVA=8.6572 irradiance=1 Pmpp=7.2143 %cutin=0.1 %cutout=0.1
New PVSystem.PV_83 phases=1 bus1=G2001QN7500_N274552_sec_3.2 kV=0.24 kVA=7.9504 irradiance=1 Pmpp=6.6253 %cutin=0.1 %cutout=0.1
New PVSystem.PV_84 phases=1 bus1=G2001RG8800_N274396_sec_3.2 kV=0.24 kVA=10.2 irradiance=1 Pmpp=8.5 %cutin=0.1 %cutout=0.1
New PVSystem.PV_85 phases=1 bus1=G2001RI6300_N1347089_sec_6.1 kV=0.24 kVA=7.2 irradiance=1 Pmpp=6 %cutin=0.1 %cutout=0.1
New PVSystem.PV_86 phases=1 bus1=G2001SB8200_N274258_sec_1.3 kV=0.24 kVA=3.84 irradiance=1 Pmpp=3.2 %cutin=0.1 %cutout=0.1
New PVSystem.PV_87 phases=1 bus1=G2001SL1400_N274531_sec_4.2 kV=0.24 kVA=11.4246 irradiance=1 Pmpp=9.5205 %cutin=0.1 %cutout=0.1
New PVSystem.PV_88 phases=1 bus1=G2001TL8200_N274509_sec_2.2 kV=0.24 kVA=6.621 irradiance=1 Pmpp=5.5175 %cutin=0.1 %cutout=0.1
New PVSystem.PV_89 phases=1 bus1=G2001UB4400_N283904_sec_8.3 kV=0.24 kVA=3 irradiance=1 Pmpp=2.5 %cutin=0.1 %cutout=0.1
New PVSystem.PV_90 phases=1 bus1=G2001UD9000_N283927_sec_1.3 kV=0.24 kVA=4.08 irradiance=1 Pmpp=3.4 %cutin=0.1 %cutout=0.1
New PVSystem.PV_91 phases=1 bus1=G2001UJ6300_N284204_sec_3.2 kV=0.24 kVA=7.3585 irradiance=1 Pmpp=6.1321 %cutin=0.1 %cutout=0.1
New PVSystem.PV_92 phases=1 bus1=G2100AG2100_N283585_sec_3.3 kV=0.24 kVA=5.4 irradiance=1 Pmpp=4.5 %cutin=0.1 %cutout=0.1
New PVSystem.PV_93 phases=1 bus1=G2100AH2000_N283617_sec_1.3 kV=0.24 kVA=5.88 irradiance=1 Pmpp=4.9 %cutin=0.1 %cutout=0.1
New PVSystem.PV_94 phases=1 bus1=G2100AH2000_N283617_sec_4.3 kV=0.24 kVA=3.96 irradiance=1 Pmpp=3.3 %cutin=0.1 %cutout=0.1
New PVSystem.PV_95 phases=1 bus1=G2100BH6100_N283623_sec_5.3 kV=0.24 kVA=3.24 irradiance=1 Pmpp=2.7 %cutin=0.1 %cutout=0.1
New PVSystem.PV_96 phases=1 bus1=G2100BJ7400_N283728_sec_5.2 kV=0.24 kVA=8.2281 irradiance=1 Pmpp=6.8568 %cutin=0.1 %cutout=0.1
New PVSystem.PV_97 phases=1 bus1=G2100BP7000_N283874_sec_3.3 kV=0.24 kVA=5.4 irradiance=1 Pmpp=4.5 %cutin=0.1 %cutout=0.1
New PVSystem.PV_98 phases=1 bus1=G2100CH7400_N283632_sec_11.3 kV=0.24 kVA=3 irradiance=1 Pmpp=2.5 %cutin=0.1 %cutout=0.1
New PVSystem.PV_99 phases=1 bus1=G2100DG1300_N283601_sec_8.3 kV=0.24 kVA=3.24 irradiance=1 Pmpp=2.7 %cutin=0.1 %cutout=0.1
New PVSystem.PV_100 phases=1 bus1=G2100DG1300_N283601_sec_13.3 kV=0.24 kVA=2.28 irradiance=1 Pmpp=1.9 %cutin=0.1 %cutout=0.1
New PVSystem.PV_101 phases=1 bus1=G2100DM3200_N283818_sec_4.3 kV=0.24 kVA=6 irradiance=1 Pmpp=5 %cutin=0.1 %cutout=0.1
New PVSystem.PV_102 phases=1 bus1=G2100DN4800_N283861_sec_24.3 kV=0.24 kVA=1.32 irradiance=1 Pmpp=1.1 %cutin=0.1 %cutout=0.1
New PVSystem.PV_103 phases=1 bus1=G2100EK8800_N292347_sec_15.2 kV=0.24 kVA=10.1411 irradiance=1 Pmpp=8.4509 %cutin=0.1 %cutout=0.1
New PVSystem.PV_104 phases=1 bus1=G2100EM1500_N292428_sec_7.3 kV=0.24 kVA=4.08 irradiance=1 Pmpp=3.4 %cutin=0.1 %cutout=0.1
New PVSystem.PV_105 phases=1 bus1=G2100EM2500_N292390_sec_10.2 kV=0.24 kVA=6.4712 irradiance=1 Pmpp=5.3926 %cutin=0.1 %cutout=0.1
New PVSystem.PV_106 phases=1 bus1=G2100FK5800_N292373_sec_5.2 kV=0.24 kVA=12.6 irradiance=1 Pmpp=10.5 %cutin=0.1 %cutout=0.1
New PVSystem.PV_107 phases=1 bus1=G2100FK9800_N292385_sec_4.1 kV=0.24 kVA=4.92 irradiance=1 Pmpp=4.1 %cutin=0.1 %cutout=0.1
New PVSystem.PV_108 phases=3 conn = delta bus1=G2100GJ2300_N292354_sec_1.1.2.3 kV=0.48 kVA=25.2 irradiance=1 Pmpp=21 %cutin=0.1 %cutout=0.1
New PVSystem.PV_109 phases=1 bus1=G2100GM9700_N292423_sec_4.3 kV=0.24 kVA=3.12 irradiance=1 Pmpp=2.6 %cutin=0.1 %cutout=0.1
New PVSystem.PV_110 phases=1 bus1=G2100GM9700_N292423_sec_32.3 kV=0.24 kVA=5.4 irradiance=1 Pmpp=4.5 %cutin=0.1 %cutout=0.1
New PVSystem.PV_111 phases=3 conn = delta bus1=G2100HE0400_N292223_sec_1.1.2.3 kV=0.48 kVA=11.0843 irradiance=1 Pmpp=9.2369 %cutin=0.1 %cutout=0.1
New PVSystem.PV_112 phases=1 bus1=G2100HM3200_N292420_sec_15.3 kV=0.24 kVA=2.04 irradiance=1 Pmpp=1.7 %cutin=0.1 %cutout=0.1
New PVSystem.PV_113 phases=1 bus1=G2100HM3200_N292420_sec_26.3 kV=0.24 kVA=2.88 irradiance=1 Pmpp=2.4 %cutin=0.1 %cutout=0.1
New PVSystem.PV_114 phases=1 bus1=G2100HM9900_N292433_sec_12.3 kV=0.24 kVA=0.84 irradiance=1 Pmpp=0.7 %cutin=0.1 %cutout=0.1
New PVSystem.PV_115 phases=1 bus1=G2100HM9900_N292433_sec_37.3 kV=0.24 kVA=4.32 irradiance=1 Pmpp=3.6 %cutin=0.1 %cutout=0.1
New PVSystem.PV_116 phases=1 bus1=G2100HN5600_N292453_sec_3.3 kV=0.24 kVA=3.36 irradiance=1 Pmpp=2.8 %cutin=0.1 %cutout=0.1
New PVSystem.PV_117 phases=1 bus1=G2100HN5600_N292453_sec_40.3 kV=0.24 kVA=1.08 irradiance=1 Pmpp=0.9 %cutin=0.1 %cutout=0.1
New PVSystem.PV_118 phases=1 bus1=G2100HN5600_N292453_sec_51.3 kV=0.24 kVA=2.76 irradiance=1 Pmpp=2.3 %cutin=0.1 %cutout=0.1
New PVSystem.PV_119 phases=1 bus1=G2100IL1000_N292412_sec_28.3 kV=0.24 kVA=2.88 irradiance=1 Pmpp=2.4 %cutin=0.1 %cutout=0.1
New PVSystem.PV_120 phases=1 bus1=G2100IL1000_N292412_sec_30.3 kV=0.24 kVA=2.16 irradiance=1 Pmpp=1.8 %cutin=0.1 %cutout=0.1
New PVSystem.PV_121 phases=1 bus1=G2100IM6700_N292430_sec_22.3 kV=0.24 kVA=2.28 irradiance=1 Pmpp=1.9 %cutin=0.1 %cutout=0.1
New PVSystem.PV_122 phases=1 bus1=G2100IM6700_N292430_sec_24.3 kV=0.24 kVA=2.76 irradiance=1 Pmpp=2.3 %cutin=0.1 %cutout=0.1
New PVSystem.PV_123 phases=1 bus1=G2100IN2700_N292475_sec_19.3 kV=0.24 kVA=2.64 irradiance=1 Pmpp=2.2 %cutin=0.1 %cutout=0.1
New PVSystem.PV_124 phases=1 bus1=G2100IN2700_N292475_sec_33.3 kV=0.24 kVA=0.48 irradiance=1 Pmpp=0.4 %cutin=0.1 %cutout=0.1
New PVSystem.PV_125 phases=1 bus1=G2100IN7700_N292438_sec_15.3 kV=0.24 kVA=3.36 irradiance=1 Pmpp=2.8 %cutin=0.1 %cutout=0.1
New PVSystem.PV_126 phases=1 bus1=G2100JP3100_N300601_sec_4.1 kV=0.24 kVA=8.8636 irradiance=1 Pmpp=7.3864 %cutin=0.1 %cutout=0.1
New PVSystem.PV_127 phases=3 conn = delta bus1=G2100NJ8400_N300472_sec_1.1.2.3 kV=0.48 kVA=9.6 irradiance=1 Pmpp=8 %cutin=0.1 %cutout=0.1
New PVSystem.PV_128 phases=1 bus1=G2100OM2900_N300514_sec_4.1 kV=0.24 kVA=3.3647 irradiance=1 Pmpp=2.8039 %cutin=0.1 %cutout=0.1
New PVSystem.PV_129 phases=1 bus1=G2100PN0800_N300563_sec_1.1 kV=0.24 kVA=3.48 irradiance=1 Pmpp=2.9 %cutin=0.1 %cutout=0.1
New PVSystem.PV_130 phases=1 bus1=G2100PN0800_N300563_sec_4.1 kV=0.24 kVA=6.72 irradiance=1 Pmpp=5.6 %cutin=0.1 %cutout=0.1
New PVSystem.PV_131 phases=1 bus1=G2100QP9600_N300587_sec_3.2 kV=0.24 kVA=5.1899 irradiance=1 Pmpp=4.3249 %cutin=0.1 %cutout=0.1
New PVSystem.PV_132 phases=1 bus1=G2101AG2000_N284124_sec_1.3 kV=0.24 kVA=4.5906 irradiance=1 Pmpp=3.8255 %cutin=0.1 %cutout=0.1
New PVSystem.PV_133 phases=1 bus1=G2101AJ7700_N284211_sec_1.1 kV=0.24 kVA=11.28 irradiance=1 Pmpp=9.4 %cutin=0.1 %cutout=0.1
New PVSystem.PV_134 phases=1 bus1=G2101AL8800_N284268_sec_1.1 kV=0.24 kVA=6.72 irradiance=1 Pmpp=5.6 %cutin=0.1 %cutout=0.1
New PVSystem.PV_135 phases=1 bus1=G2101CL5700_N284257_sec_2.1 kV=0.24 kVA=7.68 irradiance=1 Pmpp=6.4 %cutin=0.1 %cutout=0.1
New PVSystem.PV_136 phases=1 bus1=G2101FD9100_N292643_sec_1.1 kV=0.24 kVA=4.44 irradiance=1 Pmpp=3.7 %cutin=0.1 %cutout=0.1
New PVSystem.PV_137 phases=1 bus1=G2101FH1100_N292737_sec_1.2 kV=0.24 kVA=8.1576 irradiance=1 Pmpp=6.798 %cutin=0.1 %cutout=0.1
New PVSystem.PV_138 phases=1 bus1=G2101FJ5700_N292783_sec_1.2 kV=0.24 kVA=3.2134 irradiance=1 Pmpp=2.6779 %cutin=0.1 %cutout=0.1
New PVSystem.PV_139 phases=3 conn = delta bus1=G2101GA2000_N292532_sec_2.1.2.3 kV=0.48 kVA=81 irradiance=1 Pmpp=67.5 %cutin=0.1 %cutout=0.1
New PVSystem.PV_140 phases=1 bus1=G2101GC3200_N292623_sec_19.1 kV=0.24 kVA=3 irradiance=1 Pmpp=2.5 %cutin=0.1 %cutout=0.1
New PVSystem.PV_141 phases=1 bus1=G2101GC9700_N292633_sec_6.1 kV=0.24 kVA=3.6 irradiance=1 Pmpp=3 %cutin=0.1 %cutout=0.1
New PVSystem.PV_142 phases=1 bus1=G2101GC9700_N292633_sec_21.1 kV=0.24 kVA=3 irradiance=1 Pmpp=2.5 %cutin=0.1 %cutout=0.1
New PVSystem.PV_143 phases=3 conn = delta bus1=G2101GM6800_N292740_sec_1.1.2.3 kV=0.48 kVA=95.16 irradiance=1 Pmpp=79.3 %cutin=0.1 %cutout=0.1
New PVSystem.PV_144 phases=1 bus1=G2101GM7700_N292843_sec_1.2 kV=0.24 kVA=13.9134 irradiance=1 Pmpp=11.5945 %cutin=0.1 %cutout=0.1
New PVSystem.PV_145 phases=1 bus1=G2101GN5000_N292870_sec_2.2 kV=0.24 kVA=3.84 irradiance=1 Pmpp=3.2 %cutin=0.1 %cutout=0.1
New PVSystem.PV_146 phases=1 bus1=G2101HB3500_N292585_sec_8.1 kV=0.24 kVA=7.7134 irradiance=1 Pmpp=6.4279 %cutin=0.1 %cutout=0.1
New PVSystem.PV_147 phases=1 bus1=G2101HD1100_N292645_sec_4.1 kV=0.24 kVA=4.08 irradiance=1 Pmpp=3.4 %cutin=0.1 %cutout=0.1
New PVSystem.PV_148 phases=1 bus1=G2101HI9300_N292770_sec_2.3 kV=0.24 kVA=2.28 irradiance=1 Pmpp=1.9 %cutin=0.1 %cutout=0.1
New PVSystem.PV_149 phases=1 bus1=G2101II8600_N292779_sec_2.3 kV=0.24 kVA=5.04 irradiance=1 Pmpp=4.2 %cutin=0.1 %cutout=0.1
New PVSystem.PV_150 phases=3 conn = delta bus1=G2101JA6700_N1321243_sec_8.1.2.3 kV=0.48 kVA=12 irradiance=1 Pmpp=10 %cutin=0.1 %cutout=0.1
New PVSystem.PV_151 phases=1 bus1=G2101KE3900_N300817_sec_2.1 kV=0.24 kVA=5.6178 irradiance=1 Pmpp=4.6815 %cutin=0.1 %cutout=0.1
New PVSystem.PV_152 phases=1 bus1=G2101PA3400_N300633_sec_2.1 kV=0.24 kVA=7.56 irradiance=1 Pmpp=6.3 %cutin=0.1 %cutout=0.1
New PVSystem.PV_153 phases=1 bus1=G2101QA0800_N300664_sec_2.1 kV=0.24 kVA=5.76 irradiance=1 Pmpp=4.8 %cutin=0.1 %cutout=0.1
New PVSystem.PV_154 phases=1 bus1=G2101QC6000_N300736_sec_5.3 kV=0.24 kVA=4.08 irradiance=1 Pmpp=3.4 %cutin=0.1 %cutout=0.1
New PVSystem.PV_155 phases=1 bus1=G2102CF4600_N284377_sec_2.1 kV=0.24 kVA=7.92 irradiance=1 Pmpp=6.6 %cutin=0.1 %cutout=0.1
New PVSystem.PV_156 phases=1 bus1=G2000RO4500_N274220_sec_2.3 kV=0.24 kVA=6.6 irradiance=1 Pmpp=5.5 %cutin=0.1 %cutout=0.1
New PVSystem.PV_157 phases=1 bus1=G2000UI3100_N283702_sec_2.3 kV=0.24 kVA=2.4 irradiance=1 Pmpp=2 %cutin=0.1 %cutout=0.1
New PVSystem.PV_158 phases=1 bus1=G2000WN0100_N283840_sec_1.2 kV=0.24 kVA=5.9276 irradiance=1 Pmpp=4.9397 %cutin=0.1 %cutout=0.1
New PVSystem.PV_159 phases=1 bus1=G2000XO7000_N283918_sec_2.3 kV=0.24 kVA=3.36 irradiance=1 Pmpp=2.8 %cutin=0.1 %cutout=0.1
New PVSystem.PV_160 phases=1 bus1=G2000XO7000_N283918_sec_5.3 kV=0.24 kVA=4.92 irradiance=1 Pmpp=4.1 %cutin=0.1 %cutout=0.1
New PVSystem.PV_161 phases=1 bus1=G2000YM7400_N283825_sec_1.1 kV=0.24 kVA=4.56 irradiance=1 Pmpp=3.8 %cutin=0.1 %cutout=0.1
New PVSystem.PV_162 phases=1 bus1=G2001QN7500_N274552_sec_2.2 kV=0.24 kVA=13.08 irradiance=1 Pmpp=10.9 %cutin=0.1 %cutout=0.1
New PVSystem.PV_163 phases=1 bus1=G2001QO2100_N274563_sec_1.2 kV=0.24 kVA=9.7752 irradiance=1 Pmpp=8.146 %cutin=0.1 %cutout=0.1
New PVSystem.PV_164 phases=1 bus1=G2001SA1700_N274258_sec_3.3 kV=0.24 kVA=7.44 irradiance=1 Pmpp=6.2 %cutin=0.1 %cutout=0.1
New PVSystem.PV_165 phases=1 bus1=G2001SE4900_N274364_sec_4.3 kV=0.24 kVA=3.24 irradiance=1 Pmpp=2.7 %cutin=0.1 %cutout=0.1
New PVSystem.PV_166 phases=1 bus1=G2001TC6700_N274291_sec_6.3 kV=0.24 kVA=6.6 irradiance=1 Pmpp=5.5 %cutin=0.1 %cutout=0.1
New PVSystem.PV_167 phases=1 bus1=G2001UB2100_N283965_sec_5.3 kV=0.24 kVA=5.1641 irradiance=1 Pmpp=4.3034 %cutin=0.1 %cutout=0.1
New PVSystem.PV_168 phases=1 bus1=G2001VB5300_N283949_sec_5.3 kV=0.24 kVA=1.3185 irradiance=1 Pmpp=1.0988 %cutin=0.1 %cutout=0.1
New PVSystem.PV_169 phases=1 bus1=G2001VD4400_N284006_sec_5.3 kV=0.24 kVA=3.72 irradiance=1 Pmpp=3.1 %cutin=0.1 %cutout=0.1
New PVSystem.PV_170 phases=1 bus1=G2001VD7200_N283953_sec_2.3 kV=0.24 kVA=3.96 irradiance=1 Pmpp=3.3 %cutin=0.1 %cutout=0.1
New PVSystem.PV_171 phases=1 bus1=G2001VE0100_N284048_sec_1.3 kV=0.24 kVA=5.28 irradiance=1 Pmpp=4.4 %cutin=0.1 %cutout=0.1
New PVSystem.PV_172 phases=1 bus1=G2001VK9500_N284225_sec_2.2 kV=0.24 kVA=13.68 irradiance=1 Pmpp=11.4 %cutin=0.1 %cutout=0.1
New PVSystem.PV_173 phases=1 bus1=G2001WC7300_N283986_sec_2.3 kV=0.24 kVA=5.28 irradiance=1 Pmpp=4.4 %cutin=0.1 %cutout=0.1
New PVSystem.PV_174 phases=1 bus1=G2001XA3300_N283909_sec_2.3 kV=0.24 kVA=6.1101 irradiance=1 Pmpp=5.0917 %cutin=0.1 %cutout=0.1
New PVSystem.PV_175 phases=1 bus1=G2001XE2600_N284069_sec_5.1 kV=0.24 kVA=8.16 irradiance=1 Pmpp=6.8 %cutin=0.1 %cutout=0.1
New PVSystem.PV_176 phases=1 bus1=G2100AM9800_N283829_sec_1.1 kV=0.24 kVA=3.12 irradiance=1 Pmpp=2.6 %cutin=0.1 %cutout=0.1
New PVSystem.PV_177 phases=1 bus1=G2100BJ0700_N283696_sec_7.2 kV=0.24 kVA=10.8021 irradiance=1 Pmpp=9.0017 %cutin=0.1 %cutout=0.1
New PVSystem.PV_178 phases=1 bus1=G2100CH7400_N283632_sec_2.3 kV=0.24 kVA=3 irradiance=1 Pmpp=2.5 %cutin=0.1 %cutout=0.1
New PVSystem.PV_179 phases=1 bus1=G2100CH7400_N283632_sec_10.3 kV=0.24 kVA=2.64 irradiance=1 Pmpp=2.2 %cutin=0.1 %cutout=0.1
New PVSystem.PV_180 phases=1 bus1=G2100CI4600_N283694_sec_4.2 kV=0.24 kVA=4.0446 irradiance=1 Pmpp=3.3705 %cutin=0.1 %cutout=0.1
New PVSystem.PV_181 phases=1 bus1=G2100DL9400_N283794_sec_1.3 kV=0.24 kVA=3.24 irradiance=1 Pmpp=2.7 %cutin=0.1 %cutout=0.1
New PVSystem.PV_182 phases=1 bus1=G2100DN3000_N283838_sec_4.3 kV=0.24 kVA=1.68 irradiance=1 Pmpp=1.4 %cutin=0.1 %cutout=0.1
New PVSystem.PV_183 phases=1 bus1=G2100DN3000_N283838_sec_13.3 kV=0.24 kVA=1.32 irradiance=1 Pmpp=1.1 %cutin=0.1 %cutout=0.1
New PVSystem.PV_184 phases=1 bus1=G2100EG8500_N292275_sec_6.3 kV=0.24 kVA=2.88 irradiance=1 Pmpp=2.4 %cutin=0.1 %cutout=0.1
New PVSystem.PV_185 phases=1 bus1=G2100EN2200_N292457_sec_35.3 kV=0.24 kVA=5.76 irradiance=1 Pmpp=4.8 %cutin=0.1 %cutout=0.1
New PVSystem.PV_186 phases=1 bus1=G2100EO1300_N292510_sec_7.3 kV=0.24 kVA=1.8 irradiance=1 Pmpp=1.5 %cutin=0.1 %cutout=0.1
New PVSystem.PV_187 phases=3 conn = delta bus1=G2100FE2600_N292234_sec_11.1.2.3 kV=0.48 kVA=31.08 irradiance=1 Pmpp=25.9 %cutin=0.1 %cutout=0.1
New PVSystem.PV_188 phases=3 conn = delta bus1=G2100FE2600_N292234_sec_17.1.2.3 kV=0.48 kVA=14.64 irradiance=1 Pmpp=12.2 %cutin=0.1 %cutout=0.1
New PVSystem.PV_189 phases=1 bus1=G2100FO1600_N292502_sec_2.3 kV=0.24 kVA=0.12 irradiance=1 Pmpp=0.1 %cutin=0.1 %cutout=0.1
New PVSystem.PV_190 phases=1 bus1=G2100FO1600_N292502_sec_14.3 kV=0.24 kVA=2.4 irradiance=1 Pmpp=2 %cutin=0.1 %cutout=0.1
New PVSystem.PV_191 phases=1 bus1=G2100GJ1600_N292364_sec_2.1 kV=0.24 kVA=10.8328 irradiance=1 Pmpp=9.0273 %cutin=0.1 %cutout=0.1
New PVSystem.PV_192 phases=1 bus1=G2100GN4300_N292461_sec_7.1 kV=0.24 kVA=5.28 irradiance=1 Pmpp=4.4 %cutin=0.1 %cutout=0.1
New PVSystem.PV_193 phases=1 bus1=G2100GN4300_N292461_sec_9.1 kV=0.24 kVA=2.28 irradiance=1 Pmpp=1.9 %cutin=0.1 %cutout=0.1
New PVSystem.PV_194 phases=1 bus1=G2100GN7300_N292464_sec_6.1 kV=0.24 kVA=8.28 irradiance=1 Pmpp=6.9 %cutin=0.1 %cutout=0.1
New PVSystem.PV_195 phases=3 conn = delta bus1=G2100HE3000_N292212_sec_1.1.2.3 kV=0.48 kVA=89.28 irradiance=1 Pmpp=74.4 %cutin=0.1 %cutout=0.1
New PVSystem.PV_196 phases=1 bus1=G2100HM3200_N292420_sec_4.3 kV=0.24 kVA=2.88 irradiance=1 Pmpp=2.4 %cutin=0.1 %cutout=0.1
New PVSystem.PV_197 phases=1 bus1=G2100HM3200_N292420_sec_19.3 kV=0.24 kVA=0.36 irradiance=1 Pmpp=0.3 %cutin=0.1 %cutout=0.1
New PVSystem.PV_198 phases=1 bus1=G2100HN5600_N292453_sec_25.3 kV=0.24 kVA=1.68 irradiance=1 Pmpp=1.4 %cutin=0.1 %cutout=0.1
New PVSystem.PV_199 phases=1 bus1=G2100IN2700_N292475_sec_4.3 kV=0.24 kVA=2.28 irradiance=1 Pmpp=1.9 %cutin=0.1 %cutout=0.1
New PVSystem.PV_200 phases=1 bus1=G2100IN2700_N292475_sec_24.3 kV=0.24 kVA=2.76 irradiance=1 Pmpp=2.3 %cutin=0.1 %cutout=0.1
...
